Version 4
SHEET 1 880 680
WIRE 208 64 -112 64
WIRE 208 96 208 64
WIRE -112 128 -112 64
WIRE 208 208 208 176
WIRE -112 288 -112 208
WIRE 208 288 -112 288
WIRE -112 320 -112 288
FLAG -112 320 0
SYMBOL voltage -112 112 R0
WINDOW 123 0 0 Left 2
WINDOW 39 0 0 Left 2
SYMATTR InstName V1
SYMATTR Value SINE(0 10 60 0 0 0 5)
SYMBOL res 192 80 R0
SYMATTR InstName R1
SYMATTR Value 100
SYMBOL ind 192 192 R0
SYMATTR InstName L1
SYMATTR Value 1
SYMATTR SpiceLine Rser=0
TEXT -146 344 Left 2 !.tran .1
